@<TRIPOS>MOLECULE
SB2
43   46    1
SMALL
USER_CHARGES


@<TRIPOS>ATOM
      1 O1          1.2147   22.1395   28.5656 O.2       1 UNK         0.0000 
      2 C2          0.8145   21.5138   25.9856 C.3       1 UNK         0.0000 
      3 S3          0.3291   21.2613   27.6794 S.3       1 UNK         0.0000 
      4 C4          0.3192   17.2197   27.9039 C.ar      1 UNK         0.0000 
      5 C5         -0.0816   18.5408   27.7434 C.ar      1 UNK         0.0000 
      6 C6          0.8424   19.5693   27.8849 C.ar      1 UNK         0.0000 
      7 C7          2.1671   19.2768   28.1867 C.ar      1 UNK         0.0000 
      8 C8          2.5679   17.9557   28.3471 C.ar      1 UNK         0.0000 
      9 C9          1.6439   16.9271   28.2057 C.ar      1 UNK         0.0000 
     10 N10         0.8006    9.3192   28.4428 N.ar      1 UNK         0.0000 
     11 C11         0.2087   10.2626   27.6676 C.ar      1 UNK         0.0000 
     12 C12         0.6247   11.5929   27.6700 C.ar      1 UNK         0.0000 
     13 C13         1.6829   11.9814   28.4914 C.ar      1 UNK         0.0000 
     14 C14         2.2996   11.0227   29.2925 C.ar      1 UNK         0.0000 
     15 C15         1.8300    9.7111   29.2381 C.ar      1 UNK         0.0000 
     16 N16         1.3320   14.4238   28.2789 N.2       1 UNK         0.0000 
     17 C17         2.0764   15.5013   28.3788 C.ar      1 UNK         0.0000 
     18 N18         3.3789   15.2031   28.6762 N.pl3     1 UNK         0.0000 
     19 C19         3.4427   13.8375   28.7665 C.ar      1 UNK         0.0000 
     20 C20         2.1491   13.4069   28.5119 C.ar      1 UNK         0.0000 
     21 C21         5.6855   13.7293   29.8749 C.ar      1 UNK         0.0000 
     22 C22         6.8730   13.0670   30.1734 C.ar      1 UNK         0.0000 
     23 C23         7.0856   11.7878   29.6737 C.ar      1 UNK         0.0000 
     24 C24         6.1196   11.1751   28.8820 C.ar      1 UNK         0.0000 
     25 C25         4.9307   11.8337   28.5810 C.ar      1 UNK         0.0000 
     26 C26         4.7187   13.1148   29.0820 C.ar      1 UNK         0.0000 
     27 F27         8.2353   11.1365   29.9579 F         1 UNK         0.0000 
     28 H28         4.1385   15.8687   28.8025 H         1 UNK         0.0000 
     29 H29         0.1955   20.8967   25.3344 H         1 UNK         0.0000 
     30 H30         0.6839   22.5636   25.7229 H         1 UNK         0.0000 
     31 H31         1.8612   21.2359   25.8623 H         1 UNK         0.0000 
     32 H32        -0.4002   16.4189   27.7938 H         1 UNK         0.0000 
     33 H33        -1.1130   18.7685   27.5085 H         1 UNK         0.0000 
     34 H34         2.8865   20.0775   28.2968 H         1 UNK         0.0000 
     35 H35         3.5992   17.7279   28.5821 H         1 UNK         0.0000 
     36 H36        -0.6115    9.9430   27.0359 H         1 UNK         0.0000 
     37 H37         0.1293   12.3179   27.0387 H         1 UNK         0.0000 
     38 H38         3.1229   11.2882   29.9416 H         1 UNK         0.0000 
     39 H39         2.2910    8.9452   29.8504 H         1 UNK         0.0000 
     40 H40         5.5134   14.7251   30.2606 H         1 UNK         0.0000 
     41 H41         7.6266   13.5381   30.7878 H         1 UNK         0.0000 
     42 H42         6.2992   10.1803   28.5007 H         1 UNK         0.0000 
     43 H43         4.1812   11.3550   27.9652 H         1 UNK         0.0000 
@<TRIPOS>BOND
     1    1    3 2    
     2    2    3 1    
     3    2   29 1    
     4    2   30 1    
     5    2   31 1    
     6    3    6 1    
     7    4    5 ar   
     8    4    9 ar   
     9    4   32 1    
    10    5    6 ar   
    11    5   33 1    
    12    6    7 ar   
    13    7    8 ar   
    14    7   34 1    
    15    8    9 ar   
    16    8   35 1    
    17    9   17 1    
    18   10   11 ar   
    19   10   15 ar   
    20   11   12 ar   
    21   11   36 1    
    22   12   13 ar   
    23   12   37 1    
    24   13   14 ar   
    25   13   20 1    
    26   14   15 ar   
    27   14   38 1    
    28   15   39 1    
    29   16   17 ar   
    30   16   20 ar   
    31   17   18 ar   
    32   18   19 ar   
    33   18   28 1    
    34   19   20 ar   
    35   19   26 1    
    36   21   22 ar   
    37   21   26 ar   
    38   21   40 1    
    39   22   23 ar   
    40   22   41 1    
    41   23   24 ar   
    42   23   27 1    
    43   24   25 ar   
    44   24   42 1    
    45   25   26 ar   
    46   25   43 1    
@<TRIPOS>SUBSTRUCTURE
     1 UNK         1 GROUP             0       ****    0 ROOT    
