@<TRIPOS>MOLECULE
SB2
 43 46 0 0 0
SMALL
GASTEIGER

@<TRIPOS>ATOM
      1 O          -0.9400   21.5700   27.8010 O.2     1  LIG1       -0.2524
      2 C           1.7670   22.3460   28.2870 C.3     1  LIG1        0.0163
      3 S           0.5880   21.2640   27.4030 S.O     1  LIG1        0.0507
      4 C           0.4630   17.2150   27.7730 C.ar    1  LIG1       -0.0500
      5 C           0.0750   18.5630   27.5900 C.ar    1  LIG1       -0.0453
      6 C           1.0690   19.5790   27.6130 C.ar    1  LIG1        0.0386
      7 C           2.4440   19.2780   27.8020 C.ar    1  LIG1       -0.0453
      8 C           2.8260   17.9330   27.9810 C.ar    1  LIG1       -0.0500
      9 C           1.8520   16.8530   27.9720 C.ar    1  LIG1        0.0173
     10 N           0.4690    9.3540   28.9050 N.ar    1  LIG1       -0.2632
     11 C           0.0330   10.1300   27.8840 C.ar    1  LIG1        0.0282
     12 C           0.5600   11.4490   27.6850 C.ar    1  LIG1       -0.0344
     13 C           1.5720   11.9530   28.5980 C.ar    1  LIG1        0.0033
     14 C           1.9890   11.0570   29.6830 C.ar    1  LIG1       -0.0344
     15 C           1.4080    9.7650   29.7890 C.ar    1  LIG1        0.0282
     16 N           1.3470   14.4320   28.2060 N.ar    1  LIG1       -0.3374
     17 C           2.2550   15.4900   28.1830 C.ar    1  LIG1        0.1393
     18 N           3.5760   15.1690   28.3810 N.ar    1  LIG1       -0.2271
     19 C           3.5530   13.7840   28.5630 C.ar    1  LIG1        0.0971
     20 C           2.1500   13.3030   28.4790 C.ar    1  LIG1        0.0744
     21 C           5.3380   13.3370   30.1690 C.ar    1  LIG1       -0.0498
     22 C           6.5350   12.7070   30.5430 C.ar    1  LIG1       -0.0258
     23 C           7.1890   11.8340   29.6380 C.ar    1  LIG1        0.1234
     24 C           6.6360   11.5840   28.3390 C.ar    1  LIG1       -0.0258
     25 C           5.4270   12.2190   27.9600 C.ar    1  LIG1       -0.0498
     26 C           4.7550   13.1100   28.8800 C.ar    1  LIG1        0.0026
     27 F           8.3550   11.2330   30.0350 F       1  LIG1       -0.2055
     28 H           2.8260   22.1330   28.0110 H       1  LIG1        0.0368
     29 H           1.5180   23.4220   28.1320 H       1  LIG1        0.0368
     30 H           1.6180   22.2850   29.3900 H       1  LIG1        0.0368
     31 H          -0.3220   16.4410   27.7600 H       1  LIG1        0.0625
     32 H          -0.9860   18.8180   27.4310 H       1  LIG1        0.0629
     33 H           3.2040   20.0770   27.8090 H       1  LIG1        0.0629
     34 H           3.8980   17.7230   28.1290 H       1  LIG1        0.0625
     35 H          -0.7380    9.6950   27.2250 H       1  LIG1        0.0830
     36 H           0.1940   12.0640   26.8450 H       1  LIG1        0.0639
     37 H           2.7460   11.3570   30.4260 H       1  LIG1        0.0639
     38 H           1.6950    9.0570   30.5840 H       1  LIG1        0.0830
     39 H           0.3380   14.4730   28.0580 H       1  LIG1        0.1674
     40 H           4.8520   14.0140   30.8920 H       1  LIG1        0.0625
     41 H           6.9590   12.8970   31.5430 H       1  LIG1        0.0646
     42 H           7.1400   10.9030   27.6320 H       1  LIG1        0.0646
     43 H           5.0120   12.0210   26.9570 H       1  LIG1        0.0625
@<TRIPOS>BOND
     1     1     3    2
     2     2     3    1
     3     2    28    1
     4     2    29    1
     5     2    30    1
     6     3     6    1
     7     4     5   ar
     8     4     9   ar
     9     4    31    1
    10     5     6   ar
    11     5    32    1
    12     6     7   ar
    13     7     8   ar
    14     7    33    1
    15     8     9   ar
    16     8    34    1
    17     9    17    1
    18    10    11   ar
    19    10    15   ar
    20    11    12   ar
    21    11    35    1
    22    12    13   ar
    23    12    36    1
    24    13    14   ar
    25    13    20    1
    26    14    15   ar
    27    14    37    1
    28    15    38    1
    29    16    17   ar
    30    16    20   ar
    31    16    39    1
    32    17    18   ar
    33    18    19   ar
    34    19    20   ar
    35    19    26    1
    36    21    22   ar
    37    21    26   ar
    38    21    40    1
    39    22    23   ar
    40    22    41    1
    41    23    24   ar
    42    23    27    1
    43    24    25   ar
    44    24    42    1
    45    25    26   ar
    46    25    43    1
