@<TRIPOS>MOLECULE
Structure5
   49    53     0     0     0
SMALL
USER_CHARGES

@<TRIPOS>ATOM
      1 C1          3.6090    0.6174   -1.0694 Du        1 <0>         0.2612
      2 O1          4.2430    1.1446   -1.9825 Du        1 <0>        -0.2671
      3 N1          0.0000    0.0000    0.0000 Du        1 <0>        -0.3375
      4 N2          4.2256    0.0104   -0.0180 Du        1 <0>        -0.3284
      5 C2          1.4600    0.0000    0.0000 Du        1 <0>         0.0448
      6 C3          2.1963   -0.6286    1.0888 Du        1 <0>        -0.0239
      7 C4          3.5428   -0.5862    1.0154 Du        1 <0>         0.0067
      8 C5         -0.7300   -1.2644    0.0003 Du        1 <0>         0.0515
      9 C6         -0.3124   -2.8932   -3.3965 Du        1 <0>        -0.0586
     10 C7         -0.0587   -2.5026   -2.0819 Du        1 <0>        -0.0388
     11 C8         -1.4876   -2.4654   -4.0105 Du        1 <0>        -0.0436
     12 C9         -0.9800   -1.6978   -1.4138 Du        1 <0>         0.0582
     13 N3         -2.1281   -1.2743   -2.0000 Du        1 <0>        -0.2583
     14 C10        -2.3628   -1.6620   -3.2808 Du        1 <0>         0.0279
     15 C11         2.1491    0.5849   -1.0130 Du        1 <0>         0.1022
     16 C12        -3.4790    2.6799   -6.3069 Du        1 <0>         0.0293
     17 C13        -1.1754    3.0676   -5.3133 Du        1 <0>         0.0498
     18 C14        -1.2589    2.3705   -4.1059 Du        1 <0>        -0.0103
     19 N4         -2.3988    3.4661   -6.0034 Du        1 <0>        -0.3058
     20 C15        -2.6948    4.7147   -6.4799 Du        1 <0>         0.1004
     21 N5         -3.8752    4.7586   -7.0542 Du        1 <0>        -0.2437
     22 C16        -4.3619    3.5300   -6.9560 Du        1 <0>         0.0458
     23 C17        -0.0730    1.9990   -3.4623 Du        1 <0>         0.0917
     24 N6          2.1001    1.8299   -3.1695 Du        1 <0>        -0.3375
     25 C18         1.4071    1.2367   -2.1420 Du        1 <0>         0.1463
     26 N7          0.1058    1.3180   -2.2829 Du        1 <0>        -0.2274
     27 C19         1.1720    2.3377   -4.0490 Du        1 <0>         0.0695
     28 C20         1.2633    3.0344   -5.2558 Du        1 <0>        -0.0231
     29 C21         0.0605    3.3904   -5.8723 Du        1 <0>        -0.0328
     30 C22         2.5855    3.3886   -5.8692 Du        1 <0>        -0.0376
     31 H1         -0.5050    0.8747    0.0000 H         1 <0>         0.1465
     32 H2          5.2340    0.0309   -0.0536 H         1 <0>         0.1683
     33 H3          1.6865   -1.1065    1.9164 H         1 <0>         0.0651
     34 H4          4.2081   -1.0140    1.7562 H         1 <0>         0.0808
     35 H5         -1.6824   -1.1340    0.5141 H         1 <0>         0.0526
     36 H6         -0.1409   -2.0239    0.5143 H         1 <0>         0.0526
     37 H7          0.3912   -3.5176   -3.9304 H         1 <0>         0.0619
     38 H8          0.8462   -2.8212   -1.5828 H         1 <0>         0.0636
     39 H9         -1.7169   -2.7490   -5.0286 H         1 <0>         0.0633
     40 H10        -3.2841   -1.3150   -3.7334 H         1 <0>         0.0829
     41 H11        -3.5216    1.6294   -6.0449 H         1 <0>         0.0829
     42 H12        -2.2176    2.1216   -3.6747 H         1 <0>         0.0660
     43 H13        -1.9881    5.5298   -6.3621 H         1 <0>         0.1032
     44 H14        -5.3359    3.2588   -7.3473 H         1 <0>         0.0845
     45 H15         3.1139    1.8582   -3.2185 H         1 <0>         0.1674
     46 H16         0.0865    3.9316   -6.8098 H         1 <0>         0.0641
     47 H17         2.4205    3.9273   -6.8023 H         1 <0>         0.0278
     48 H18         3.1484    4.0187   -5.1806 H         1 <0>         0.0278
     49 H19         3.1484    2.4772   -6.0706 H         1 <0>         0.0278
@<TRIPOS>BOND
     1    1    2 2
     2    1    4 1
     3    1   15 1
     4    3    5 1
     5    3    8 1
     6    3   31 1
     7    4    7 1
     8    4   32 1
     9    5    6 1
    10    5   15 2
    11    6    7 2
    12    6   33 1
    13    7   34 1
    14    8   12 1
    15    8   35 1
    16    8   36 1
    17    9   10 2
    18    9   11 1
    19    9   37 1
    20   10   12 1
    21   10   38 1
    22   11   14 2
    23   11   39 1
    24   12   13 2
    25   13   14 1
    26   14   40 1
    27   15   25 1
    28   16   19 1
    29   16   22 2
    30   16   41 1
    31   17   18 2
    32   17   19 1
    33   17   29 1
    34   18   23 1
    35   18   42 1
    36   19   20 1
    37   20   21 2
    38   20   43 1
    39   21   22 1
    40   22   44 1
    41   23   26 1
    42   23   27 2
    43   24   25 1
    44   24   27 1
    45   24   45 1
    46   25   26 2
    47   27   28 1
    48   28   29 2
    49   28   30 1
    50   29   46 1
    51   30   47 1
    52   30   48 1
    53   30   49 1
@<TRIPOS>MOLECULE
Structure6
   49    53     0     0     0
SMALL
USER_CHARGES

@<TRIPOS>ATOM
      1 C1          3.6090    0.6174   -1.0694 Du        1 <0>         0.2612
      2 O1          4.2430    1.1446   -1.9825 Du        1 <0>        -0.2671
      3 N1          0.0000    0.0000    0.0000 Du        1 <0>        -0.3375
      4 N2          4.2256    0.0104   -0.0180 Du        1 <0>        -0.3284
      5 C2          1.4600    0.0000    0.0000 Du        1 <0>         0.0448
      6 C3          2.1963   -0.6286    1.0888 Du        1 <0>        -0.0239
      7 C4          3.5428   -0.5862    1.0154 Du        1 <0>         0.0067
      8 C5         -0.7300   -1.2644    0.0003 Du        1 <0>         0.0515
      9 C6         -0.3124   -2.8932   -3.3965 Du        1 <0>        -0.0586
     10 C7         -0.0587   -2.5026   -2.0819 Du        1 <0>        -0.0388
     11 C8         -1.4876   -2.4654   -4.0105 Du        1 <0>        -0.0436
     12 C9         -0.9800   -1.6978   -1.4138 Du        1 <0>         0.0582
     13 N3         -2.1281   -1.2743   -2.0000 Du        1 <0>        -0.2583
     14 C10        -2.3628   -1.6620   -3.2808 Du        1 <0>         0.0279
     15 C11         2.1491    0.5849   -1.0130 Du        1 <0>         0.1022
     16 C12         0.8141    5.2498   -7.4277 Du        1 <0>         0.0293
     17 C13         0.0605    3.3904   -5.8723 Du        1 <0>         0.0498
     18 C14         1.2633    3.0344   -5.2558 Du        1 <0>        -0.0123
     19 N4          0.0956    4.1202   -7.1364 Du        1 <0>        -0.3058
     20 C15        -0.5921    3.8054   -8.2773 Du        1 <0>         0.1004
     21 N5         -0.3526    4.6548   -9.2502 Du        1 <0>        -0.2437
     22 C16         0.4995    5.5366   -8.7477 Du        1 <0>         0.0458
     23 C17         1.1720    2.3377   -4.0490 Du        1 <0>         0.0687
     24 N6          0.1058    1.3180   -2.2829 Du        1 <0>        -0.2272
     25 C18         1.4071    1.2367   -2.1420 Du        1 <0>         0.1463
     26 N7          2.1001    1.8299   -3.1695 Du        1 <0>        -0.3376
     27 C19        -0.0730    1.9990   -3.4623 Du        1 <0>         0.0925
     28 C20        -1.2589    2.3705   -4.1059 Du        1 <0>        -0.0211
     29 C21        -1.1754    3.0676   -5.3133 Du        1 <0>        -0.0328
     30 C22        -2.5901    2.0249   -3.5073 Du        1 <0>        -0.0376
     31 H1         -0.5050    0.8747    0.0000 H         1 <0>         0.1465
     32 H2          5.2340    0.0309   -0.0536 H         1 <0>         0.1683
     33 H3          1.6865   -1.1065    1.9164 H         1 <0>         0.0651
     34 H4          4.2081   -1.0140    1.7562 H         1 <0>         0.0808
     35 H5         -1.6824   -1.1340    0.5141 H         1 <0>         0.0526
     36 H6         -0.1409   -2.0239    0.5143 H         1 <0>         0.0526
     37 H7          0.3912   -3.5176   -3.9304 H         1 <0>         0.0619
     38 H8          0.8462   -2.8212   -1.5828 H         1 <0>         0.0636
     39 H9         -1.7169   -2.7490   -5.0286 H         1 <0>         0.0633
     40 H10        -3.2841   -1.3150   -3.7334 H         1 <0>         0.0829
     41 H11         1.4583    5.7290   -6.7003 H         1 <0>         0.0829
     42 H12         2.2166    3.2898   -5.6981 H         1 <0>         0.0659
     43 H13        -1.2438    2.9382   -8.3047 H         1 <0>         0.1032
     44 H14         0.8829    6.3685   -9.3275 H         1 <0>         0.0845
     45 H20         3.1139    1.8582   -3.2185 H         1 <0>         0.1674
     46 H16        -2.0826    3.3631   -5.8250 H         1 <0>         0.0641
     47 H17        -3.3861    2.3972   -4.1521 H         1 <0>         0.0278
     48 H18        -2.6758    0.9424   -3.4123 H         1 <0>         0.0278
     49 H19        -2.6758    2.4839   -2.5223 H         1 <0>         0.0278
@<TRIPOS>BOND
     1    1    2 2
     2    1    4 1
     3    1   15 1
     4    3    5 1
     5    3    8 1
     6    3   31 1
     7    4    7 1
     8    4   32 1
     9    5    6 1
    10    5   15 2
    11    6    7 2
    12    6   33 1
    13    7   34 1
    14    8   12 1
    15    8   35 1
    16    8   36 1
    17    9   10 2
    18    9   11 1
    19    9   37 1
    20   10   12 1
    21   10   38 1
    22   11   14 2
    23   11   39 1
    24   12   13 2
    25   13   14 1
    26   14   40 1
    27   15   25 1
    28   16   19 1
    29   16   22 2
    30   16   41 1
    31   17   18 2
    32   17   19 1
    33   17   29 1
    34   18   23 1
    35   18   42 1
    36   19   20 1
    37   20   21 2
    38   20   43 1
    39   21   22 1
    40   22   44 1
    41   23   26 1
    42   23   27 2
    43   24   25 2
    44   24   27 1
    45   25   26 1
    46   26   45 1
    47   27   28 1
    48   28   29 2
    49   28   30 1
    50   29   46 1
    51   30   47 1
    52   30   48 1
    53   30   49 1
