@<TRIPOS>MOLECULE
UNL
   19    20     0     0     0
SMALL
USER_CHARGES

@<TRIPOS>ATOM
      1 O1          1.2387   -6.9661    0.0083 O.2       1 <0>        -0.2917
      2 C2          0.7349   -5.8181   -0.0001 C.2       1 <0>         0.1674
      3 C3         -0.6786   -5.6175   -0.0021 C.ar      1 <0>         0.0248
      4 C4         -1.5965   -6.6976    0.0258 C.ar      1 <0>        -0.0507
      5 C5         -2.9830   -6.4607    0.0187 C.ar      1 <0>        -0.0611
      6 C6         -3.4718   -5.1455   -0.0167 C.ar      1 <0>        -0.0612
      7 C7         -2.5767   -4.0634   -0.0431 C.ar      1 <0>        -0.0539
      8 C8         -1.1786   -4.2827   -0.0336 C.ar      1 <0>        -0.0148
      9 C9         -0.3005   -3.1974   -0.0506 C.2       1 <0>        -0.0574
     10 C10         1.0326   -3.3554   -0.0335 C.2       1 <0>        -0.0760
     11 C11         1.6728   -4.6623   -0.0125 C.3       1 <0>         0.0290
     12 H1         -1.2662   -7.6643    0.0515 H         1 <0>         0.0625
     13 H2         -3.6379   -7.2461    0.0391 H         1 <0>         0.0618
     14 H3         -4.4810   -4.9738   -0.0221 H         1 <0>         0.0618
     15 H4         -2.9579   -3.1131   -0.0682 H         1 <0>         0.0624
     16 H5         -0.6620   -2.2708   -0.0740 H         1 <0>         0.0621
     17 H6          1.6126   -2.5477   -0.0368 H         1 <0>         0.0576
     18 H7          2.3096   -4.7397   -0.8952 H         1 <0>         0.0388
     19 H8          2.3099   -4.7176    0.8719 H         1 <0>         0.0388
@<TRIPOS>BOND
     1    1    2 2
     2    2    3 1
     3    8    9 1
     4    9   10 2
     5   10   11 1
     6    2   11 1
     7    4   12 1
     8    5   13 1
     9    6   14 1
    10    7   15 1
    11    9   16 1
    12   10   17 1
    13   11   18 1
    14   11   19 1
    15    3    8 ar
    16    6    7 ar
    17    4    5 ar
    18    7    8 ar
    19    5    6 ar
    20    3    4 ar
