@<TRIPOS>MOLECULE
UNL
   19    20     0     0     0
SMALL
USER_CHARGES

@<TRIPOS>ATOM
      1 O1         -0.9298   -1.3820   -0.3894 O.3       1 <0>        -0.5062
      2 C2         -1.5834   -0.2180   -0.3458 C.ar      1 <0>         0.1245
      3 C3         -2.6349   -0.0269    0.5733 C.ar      1 <0>         0.0236
      4 C4         -3.0404   -1.0243    1.4915 C.ar      1 <0>        -0.0505
      5 C5         -4.1036   -0.7854    2.3818 C.ar      1 <0>        -0.0611
      6 C6         -4.7753    0.4485    2.3687 C.ar      1 <0>        -0.0612
      7 C7         -4.3881    1.4522    1.4624 C.ar      1 <0>        -0.0539
      8 C8         -3.3206    1.2237    0.5631 C.ar      1 <0>        -0.0144
      9 C9         -2.9138    2.1970   -0.3507 C.ar      1 <0>        -0.0538
     10 C10        -1.8958    1.9464   -1.1981 C.ar      1 <0>        -0.0577
     11 C11        -1.2187    0.7492   -1.2225 C.ar      1 <0>        -0.0196
     12 H1         -2.5715   -1.9329    1.5202 H         1 <0>         0.0625
     13 H2         -4.3890   -1.5142    3.0416 H         1 <0>         0.0618
     14 H3         -5.5469    0.6171    3.0198 H         1 <0>         0.0618
     15 H4         -4.8906    2.3450    1.4656 H         1 <0>         0.0624
     16 H5         -3.3702    3.0816   -0.3851 H         1 <0>         0.0624
     17 H6         -1.6262    2.6630   -1.8374 H         1 <0>         0.0619
     18 H9         -0.2515   -1.3208    0.3152 H         1 <0>         0.2922
     19 H7         -0.4057    0.5697   -1.9259 H         1 <0>         0.0654
@<TRIPOS>BOND
     1    2    3 ar
     2    8    9 ar
     3    9   10 ar
     4   10   11 ar
     5    4   12 1
     6    5   13 1
     7    6   14 1
     8    7   15 1
     9    9   16 1
    10   10   17 1
    11    3    8 ar
    12    6    7 ar
    13    4    5 ar
    14    7    8 ar
    15    5    6 ar
    16    3    4 ar
    17    1   18 1
    18    1    2 1
    19    2   11 ar
    20   11   19 1
