@<TRIPOS>MOLECULE
UNL
   19    20     0     0     0
SMALL
USER_CHARGES

@<TRIPOS>ATOM
      1 O1          1.2387   -6.9661    0.0083 O.2       1 <0>        -0.2917
      2 C2          0.7349   -5.8181   -0.0001 C.2       1 <0>         0.1674
      3 C3         -0.6786   -5.6175   -0.0021 C.ar      1 <0>         0.0248
      4 C4         -1.5965   -6.6976    0.0258 C.ar      1 <0>        -0.0507
      5 C5         -2.9830   -6.4607    0.0187 C.ar      1 <0>        -0.0611
      6 C6         -3.4718   -5.1455   -0.0167 C.ar      1 <0>        -0.0612
      7 C7         -2.5767   -4.0634   -0.0431 C.ar      1 <0>        -0.0539
      8 C8         -1.1786   -4.2827   -0.0336 C.ar      1 <0>        -0.0148
      9 C9         -0.3005   -3.1974   -0.0506 C.2       1 <0>        -0.0574
     10 C10         1.0326   -3.3554   -0.0335 C.2       1 <0>        -0.0760
     11 C11         1.6728   -4.6623   -0.0125 C.3       1 <0>         0.0290
     12 H1         -1.2662   -7.6643    0.0515 H         1 <0>         0.0625
     13 H2         -3.6379   -7.2461    0.0391 H         1 <0>         0.0618
     14 H3         -4.4810   -4.9738   -0.0221 H         1 <0>         0.0618
     15 H4         -2.9579   -3.1131   -0.0682 H         1 <0>         0.0624
     16 H5         -0.6620   -2.2708   -0.0740 H         1 <0>         0.0621
     17 H6          1.6126   -2.5477   -0.0368 H         1 <0>         0.0576
     18 H7          2.3096   -4.7397   -0.8952 H         1 <0>         0.0388
     19 H8          2.3099   -4.7176    0.8719 H         1 <0>         0.0388
@<TRIPOS>BOND
     1    1    2 2
     2    2    3 1
     3    8    9 1
     4    9   10 2
     5   10   11 1
     6    2   11 1
     7    4   12 1
     8    5   13 1
     9    6   14 1
    10    7   15 1
    11    9   16 1
    12   10   17 1
    13   11   18 1
    14   11   19 1
    15    3    8 2
    16    6    7 2
    17    4    5 2
    18    7    8 1
    19    5    6 1
    20    3    4 1
@<TRIPOS>MOLECULE
UNL
   19    20     0     0     0
SMALL
USER_CHARGES

@<TRIPOS>ATOM
      1 O1         -0.9298   -1.3820   -0.3894 O.3       1 <0>        -0.5062
      2 C2         -1.5834   -0.2180   -0.3458 C.ar      1 <0>         0.1245
      3 C3         -2.6349   -0.0269    0.5733 C.ar      1 <0>         0.0236
      4 C4         -3.0404   -1.0243    1.4915 C.ar      1 <0>        -0.0505
      5 C5         -4.1036   -0.7854    2.3818 C.ar      1 <0>        -0.0611
      6 C6         -4.7753    0.4485    2.3687 C.ar      1 <0>        -0.0612
      7 C7         -4.3881    1.4522    1.4624 C.ar      1 <0>        -0.0539
      8 C8         -3.3206    1.2237    0.5631 C.ar      1 <0>        -0.0144
      9 C9         -2.9138    2.1970   -0.3507 C.ar      1 <0>        -0.0538
     10 C10        -1.8958    1.9464   -1.1981 C.ar      1 <0>        -0.0577
     11 C11        -1.2187    0.7492   -1.2225 C.ar      1 <0>        -0.0196
     12 H1         -2.5715   -1.9329    1.5202 H         1 <0>         0.0625
     13 H2         -4.3890   -1.5142    3.0416 H         1 <0>         0.0618
     14 H3         -5.5469    0.6171    3.0198 H         1 <0>         0.0618
     15 H4         -4.8906    2.3450    1.4656 H         1 <0>         0.0624
     16 H5         -3.3702    3.0816   -0.3851 H         1 <0>         0.0624
     17 H6         -1.6262    2.6630   -1.8374 H         1 <0>         0.0619
     18 H9         -0.2515   -1.3208    0.3152 H         1 <0>         0.2922
     19 H7         -0.4057    0.5697   -1.9259 H         1 <0>         0.0654
@<TRIPOS>BOND
     1    2    3 2
     2    8    9 2
     3    9   10 1
     4   10   11 2
     5    4   12 1
     6    5   13 1
     7    6   14 1
     8    7   15 1
     9    9   16 1
    10   10   17 1
    11    3    8 1
    12    6    7 2
    13    4    5 2
    14    7    8 1
    15    5    6 1
    16    3    4 1
    17    1   18 1
    18    1    2 1
    19    2   11 1
    20   11   19 1
