@<TRIPOS>MOLECULE
SB2
   43    46     0     0     0
SMALL
NO_CHARGES

@<TRIPOS>ATOM
      1 O1         -0.9400   21.5700   27.8010 Du        1 <0>         0.0000
      2 C1          1.7670   22.3460   28.2870 Du        1 <0>         0.0000
      3 S1          0.5880   21.2640   27.4030 Du        1 <0>         0.0000
      4 C2          0.4630   17.2150   27.7730 Du        1 <0>         0.0000
      5 C3          0.0750   18.5630   27.5900 Du        1 <0>         0.0000
      6 C4          1.0690   19.5790   27.6130 Du        1 <0>         0.0000
      7 C5          2.4440   19.2780   27.8020 Du        1 <0>         0.0000
      8 C6          2.8260   17.9330   27.9810 Du        1 <0>         0.0000
      9 C7          1.8520   16.8530   27.9720 Du        1 <0>         0.0000
     10 N1          0.4690    9.3540   28.9050 Du        1 <0>         0.0000
     11 C8          0.0330   10.1300   27.8840 Du        1 <0>         0.0000
     12 C9          0.5600   11.4490   27.6850 Du        1 <0>         0.0000
     13 C10         1.5720   11.9530   28.5980 Du        1 <0>         0.0000
     14 C11         1.9890   11.0570   29.6830 Du        1 <0>         0.0000
     15 C12         1.4080    9.7650   29.7890 Du        1 <0>         0.0000
     16 N2          1.3470   14.4320   28.2060 Du        1 <0>         0.0000
     17 C13         2.2550   15.4900   28.1830 Du        1 <0>         0.0000
     18 N3          3.5760   15.1690   28.3810 Du        1 <0>         0.0000
     19 C14         3.5530   13.7840   28.5630 Du        1 <0>         0.0000
     20 C15         2.1500   13.3030   28.4790 Du        1 <0>         0.0000
     21 C16         5.3380   13.3370   30.1690 Du        1 <0>         0.0000
     22 C17         6.5350   12.7070   30.5430 Du        1 <0>         0.0000
     23 C18         7.1890   11.8340   29.6380 Du        1 <0>         0.0000
     24 C19         6.6360   11.5840   28.3390 Du        1 <0>         0.0000
     25 C20         5.4270   12.2190   27.9600 Du        1 <0>         0.0000
     26 C21         4.7550   13.1100   28.8800 Du        1 <0>         0.0000
     27 F1          8.3550   11.2330   30.0350 F         1 <0>         0.0000
     28 H1          2.8260   22.1330   28.0110 H         1 <0>         0.0000
     29 H3          1.5180   23.4220   28.1320 H         1 <0>         0.0000
     30 H2          1.6180   22.2850   29.3900 H         1 <0>         0.0000
     31 H4         -0.3220   16.4410   27.7600 H         1 <0>         0.0000
     32 H5         -0.9860   18.8180   27.4310 H         1 <0>         0.0000
     33 H6          3.2040   20.0770   27.8090 H         1 <0>         0.0000
     34 H7          3.8980   17.7230   28.1290 H         1 <0>         0.0000
     35 H8         -0.7380    9.6950   27.2250 H         1 <0>         0.0000
     36 H9          0.1940   12.0640   26.8450 H         1 <0>         0.0000
     37 H10         2.7460   11.3570   30.4260 H         1 <0>         0.0000
     38 H11         1.6950    9.0570   30.5840 H         1 <0>         0.0000
     39 H12         0.3380   14.4730   28.0580 H         1 <0>         0.0000
     40 H13         4.8520   14.0140   30.8920 H         1 <0>         0.0000
     41 H14         6.9590   12.8970   31.5430 H         1 <0>         0.0000
     42 H15         7.1400   10.9030   27.6320 H         1 <0>         0.0000
     43 H16         5.0120   12.0210   26.9570 H         1 <0>         0.0000
@<TRIPOS>BOND
     1    1    3 2
     2    2    3 1
     3    2   28 1
     4    2   29 1
     5    2   30 1
     6    3    6 1
     7    4    5 2
     8    4    9 1
     9    4   31 1
    10    5    6 1
    11    5   32 1
    12    6    7 2
    13    7    8 1
    14    7   33 1
    15    8    9 2
    16    8   34 1
    17    9   17 1
    18   10   11 2
    19   10   15 1
    20   11   12 1
    21   11   35 1
    22   12   13 2
    23   12   36 1
    24   13   14 1
    25   13   20 1
    26   14   15 2
    27   14   37 1
    28   15   38 1
    29   16   17 1
    30   16   20 1
    31   16   39 1
    32   17   18 2
    33   18   19 1
    34   19   20 2
    35   19   26 1
    36   21   22 2
    37   21   26 1
    38   21   40 1
    39   22   23 1
    40   22   41 1
    41   23   24 2
    42   23   27 1
    43   24   25 1
    44   24   42 1
    45   25   26 2
    46   25   43 1
@<TRIPOS>MOLECULE
SB2
   43    46     0     0     0
SMALL
NO_CHARGES

@<TRIPOS>ATOM
      1 O1          1.2147   22.1395   28.5656 Du        1 <0>         0.0000
      2 C1          0.8145   21.5138   25.9856 Du        1 <0>         0.0000
      3 S1          0.3291   21.2613   27.6794 Du        1 <0>         0.0000
      4 C2          0.3192   17.2197   27.9039 Du        1 <0>         0.0000
      5 C3         -0.0816   18.5408   27.7434 Du        1 <0>         0.0000
      6 C4          0.8424   19.5693   27.8849 Du        1 <0>         0.0000
      7 C5          2.1671   19.2768   28.1867 Du        1 <0>         0.0000
      8 C6          2.5679   17.9557   28.3471 Du        1 <0>         0.0000
      9 C7          1.6439   16.9271   28.2057 Du        1 <0>         0.0000
     10 N1          0.8006    9.3192   28.4428 Du        1 <0>         0.0000
     11 C8          0.2087   10.2626   27.6676 Du        1 <0>         0.0000
     12 C9          0.6247   11.5929   27.6700 Du        1 <0>         0.0000
     13 C10         1.6829   11.9814   28.4914 Du        1 <0>         0.0000
     14 C11         2.2996   11.0227   29.2925 Du        1 <0>         0.0000
     15 C12         1.8300    9.7111   29.2381 Du        1 <0>         0.0000
     16 N2          1.3320   14.4238   28.2789 Du        1 <0>         0.0000
     17 C13         2.0764   15.5013   28.3788 Du        1 <0>         0.0000
     18 N3          3.3789   15.2031   28.6762 Du        1 <0>         0.0000
     19 C14         3.4427   13.8375   28.7665 Du        1 <0>         0.0000
     20 C15         2.1491   13.4069   28.5119 Du        1 <0>         0.0000
     21 C16         5.6855   13.7293   29.8749 Du        1 <0>         0.0000
     22 C17         6.8730   13.0670   30.1734 Du        1 <0>         0.0000
     23 C18         7.0856   11.7878   29.6737 Du        1 <0>         0.0000
     24 C19         6.1196   11.1751   28.8820 Du        1 <0>         0.0000
     25 C20         4.9307   11.8337   28.5810 Du        1 <0>         0.0000
     26 C21         4.7187   13.1148   29.0820 Du        1 <0>         0.0000
     27 F1          8.2353   11.1365   29.9579 F         1 <0>         0.0000
     28 H17         4.1385   15.8687   28.8025 H         1 <0>         0.0000
     29 H2          0.1955   20.8967   25.3344 H         1 <0>         0.0000
     30 H3          0.6839   22.5636   25.7229 H         1 <0>         0.0000
     31 H1          1.8612   21.2359   25.8623 H         1 <0>         0.0000
     32 H4         -0.4002   16.4189   27.7938 H         1 <0>         0.0000
     33 H5         -1.1130   18.7685   27.5085 H         1 <0>         0.0000
     34 H6          2.8865   20.0775   28.2968 H         1 <0>         0.0000
     35 H7          3.5992   17.7279   28.5821 H         1 <0>         0.0000
     36 H8         -0.6115    9.9430   27.0359 H         1 <0>         0.0000
     37 H9          0.1293   12.3179   27.0387 H         1 <0>         0.0000
     38 H10         3.1229   11.2882   29.9416 H         1 <0>         0.0000
     39 H11         2.2910    8.9452   29.8504 H         1 <0>         0.0000
     40 H13         5.5134   14.7251   30.2606 H         1 <0>         0.0000
     41 H14         7.6266   13.5381   30.7878 H         1 <0>         0.0000
     42 H15         6.2992   10.1803   28.5007 H         1 <0>         0.0000
     43 H16         4.1812   11.3550   27.9652 H         1 <0>         0.0000
@<TRIPOS>BOND
     1    1    3 2
     2    2    3 1
     3    2   29 1
     4    2   30 1
     5    2   31 1
     6    3    6 1
     7    4    5 2
     8    4    9 1
     9    4   32 1
    10    5    6 1
    11    5   33 1
    12    6    7 2
    13    7    8 1
    14    7   34 1
    15    8    9 2
    16    8   35 1
    17    9   17 1
    18   10   11 2
    19   10   15 1
    20   11   12 1
    21   11   36 1
    22   12   13 2
    23   12   37 1
    24   13   14 1
    25   13   20 1
    26   14   15 2
    27   14   38 1
    28   15   39 1
    29   16   17 2
    30   16   20 1
    31   17   18 1
    32   18   19 1
    33   18   28 1
    34   19   20 2
    35   19   26 1
    36   21   22 2
    37   21   26 1
    38   21   40 1
    39   22   23 1
    40   22   41 1
    41   23   24 2
    42   23   27 1
    43   24   25 1
    44   24   42 1
    45   25   26 2
    46   25   43 1
