@<TRIPOS>MOLECULE
viologen
   56    57     0     0     0
SMALL
NO_CHARGES

@<TRIPOS>ATOM
      1 O1         -7.9191   -4.9233    0.0000 O.co2     1 <0>         0.0000
      2 C2         -6.7685   -4.3375    0.0000 C.2       1 <0>         0.0000
      3 O3         -6.7053   -3.0467    0.0000 O.co2     1 <0>         0.0000
      4 C4         -5.6740   -5.0367    0.0000 C.3       1 <0>         0.0000
      5 C5         -4.5335   -4.4204    0.0000 C.3       1 <0>         0.0000
      6 C6         -3.3868   -5.0850    0.0000 C.3       1 <0>         0.0000
      7 C7         -2.2442   -4.4197    0.0000 C.3       1 <0>         0.0000
      8 C8         -1.1202   -4.9770    0.0000 C.3       1 <0>         0.0000
      9 N9         -0.3948   -3.7270    0.0000 N.pl3     1 <0>         0.0000
     10 C10         0.9118   -3.8091    0.0000 C.ar      1 <0>         0.0000
     11 C11         1.6866   -2.7169    0.0000 C.ar      1 <0>         0.0000
     12 C12        -0.9480   -2.5054    0.0000 C.ar      1 <0>         0.0000
     13 C13        -0.2088   -1.3941    0.0000 C.ar      1 <0>         0.0000
     14 C14         1.0967   -1.5198    0.0000 C.ar      1 <0>         0.0000
     15 C15         1.8284   -0.4116    0.0000 C.ar      1 <0>         0.0000
     16 C16         1.2003    0.7392    0.0000 C.ar      1 <0>         0.0000
     17 C17         1.9325    1.8557    0.0000 C.ar      1 <0>         0.0000
     18 N18         3.2731    1.8268    0.0000 N.pl3     1 <0>         0.0000
     19 C19         3.8612    0.6576    0.0000 C.ar      1 <0>         0.0000
     20 C20         3.1610   -0.4839    0.0000 C.ar      1 <0>         0.0000
     21 C21         4.1378    2.9849    0.0000 C.3       1 <0>         0.0000
     22 C22         3.1833    3.7987    0.0000 C.3       1 <0>         0.0000
     23 C23         3.3465    5.1117    0.0000 C.3       1 <0>         0.0000
     24 C24         2.2842    5.9059    0.0000 C.3       1 <0>         0.0000
     25 C25         2.4035    7.1962    0.0000 C.3       1 <0>         0.0000
     26 C26         1.3310    7.9281    0.0000 C.2       1 <0>         0.0000
     27 O27         0.1685    7.3627    0.0000 O.co2     1 <0>         0.0000
     28 O28         1.4177    9.2161    0.0000 O.co2     1 <0>         0.0000
     29 H2         -5.6442   -5.6711    0.8982 H         1 <0>         0.0000
     30 H1         -5.6441   -5.6711   -0.8981 H         1 <0>         0.0000
     31 H3         -4.4574   -3.7899   -0.8982 H         1 <0>         0.0000
     32 H4         -4.4574   -3.7898    0.8981 H         1 <0>         0.0000
     33 H5         -3.3296   -5.7175    0.8982 H         1 <0>         0.0000
     34 H6         -3.3296   -5.7175   -0.8981 H         1 <0>         0.0000
     35 H8         -2.1883   -3.7871   -0.8982 H         1 <0>         0.0000
     36 H7         -2.1882   -3.7870    0.8981 H         1 <0>         0.0000
     37 H9         -1.0220   -5.6044    0.8982 H         1 <0>         0.0000
     38 H10        -1.0220   -5.6045   -0.8981 H         1 <0>         0.0000
     39 H11         1.4746   -4.9858    0.0000 H         1 <0>         0.0000
     40 H12         2.9609   -2.8179    0.0000 H         1 <0>         0.0000
     41 H13        -2.2406   -2.3290    0.0000 H         1 <0>         0.0000
     42 H14        -0.7587   -0.2401    0.0000 H         1 <0>         0.0000
     43 H15        -0.0768    0.7919    0.0000 H         1 <0>         0.0000
     44 H16         1.2636    2.9758    0.0000 H         1 <0>         0.0000
     45 H17         5.1647    0.6021    0.0000 H         1 <0>         0.0000
     46 H18         3.7543   -1.6162    0.0000 H         1 <0>         0.0000
     47 H20         4.7727    2.9685    0.8982 H         1 <0>         0.0000
     48 H19         4.7727    2.9685   -0.8981 H         1 <0>         0.0000
     49 H21         2.5679    3.6420   -0.8982 H         1 <0>         0.0000
     50 H22         2.5678    3.6420    0.8981 H         1 <0>         0.0000
     51 H24         3.9063    5.4116    0.8982 H         1 <0>         0.0000
     52 H23         3.9064    5.4116   -0.8981 H         1 <0>         0.0000
     53 H25         1.6801    5.7101   -0.8982 H         1 <0>         0.0000
     54 H26         1.6800    5.7102    0.8981 H         1 <0>         0.0000
     55 H28         2.9536    7.5136    0.8982 H         1 <0>         0.0000
     56 H27         2.9536    7.5136   -0.8981 H         1 <0>         0.0000
@<TRIPOS>BOND
     1    1    2 1
     2    2    3 2
     3    2    4 1
     4    4    5 1
     5    4   29 1
     6    4   30 1
     7    5    6 1
     8    5   31 1
     9    5   32 1
    10    6    7 1
    11    6   33 1
    12    6   34 1
    13    7    8 1
    14    7   35 1
    15    7   36 1
    16    8    9 1
    17    8   37 1
    18    8   38 1
    19    9   10 ar
    20    9   12 ar
    21   10   11 ar
    22   10   39 1
    23   11   14 ar
    24   11   40 1
    25   12   13 ar
    26   12   41 1
    27   13   14 ar
    28   13   42 1
    29   14   15 1
    30   15   20 ar
    31   15   16 ar
    32   16   17 ar
    33   16   43 1
    34   17   18 ar
    35   17   44 1
    36   18   19 ar
    37   18   21 1
    38   19   20 ar
    39   19   45 1
    40   20   46 1
    41   21   22 1
    42   21   47 1
    43   21   48 1
    44   22   23 1
    45   22   49 1
    46   22   50 1
    47   23   24 1
    48   23   51 1
    49   23   52 1
    50   24   25 1
    51   24   53 1
    52   24   54 1
    53   25   26 1
    54   25   55 1
    55   25   56 1
    56   26   27 2
    57   26   28 1
@<TRIPOS>MOLECULE
viologen
   57    58     0     0     0
SMALL
NO_CHARGES

@<TRIPOS>ATOM
      1 O1         -7.9191   -4.9233    0.0000 O.3       1 <0>         0.0000
      2 C2         -6.7685   -4.3375    0.0000 C.2       1 <0>         0.0000
      3 O3         -6.7053   -3.0467    0.0000 O.2       1 <0>         0.0000
      4 C4         -5.6740   -5.0367    0.0000 C.3       1 <0>         0.0000
      5 C5         -4.5335   -4.4204    0.0000 C.3       1 <0>         0.0000
      6 C6         -3.3868   -5.0850    0.0000 C.3       1 <0>         0.0000
      7 C7         -2.2442   -4.4197    0.0000 C.3       1 <0>         0.0000
      8 C8         -1.1202   -4.9770    0.0000 C.3       1 <0>         0.0000
      9 N9         -0.3948   -3.7270    0.0000 N.pl3     1 <0>         0.0000
     10 C10         0.9118   -3.8091    0.0000 C.ar      1 <0>         0.0000
     11 C11         1.6866   -2.7169    0.0000 C.ar      1 <0>         0.0000
     12 C12        -0.9480   -2.5054    0.0000 C.ar      1 <0>         0.0000
     13 C13        -0.2088   -1.3941    0.0000 C.ar      1 <0>         0.0000
     14 C14         1.0967   -1.5198    0.0000 C.ar      1 <0>         0.0000
     15 C15         1.8284   -0.4116    0.0000 C.ar      1 <0>         0.0000
     16 C16         1.2003    0.7392    0.0000 C.ar      1 <0>         0.0000
     17 C17         1.9325    1.8557    0.0000 C.ar      1 <0>         0.0000
     18 N18         3.2731    1.8268    0.0000 N.pl3     1 <0>         0.0000
     19 C19         3.8612    0.6576    0.0000 C.ar      1 <0>         0.0000
     20 C20         3.1610   -0.4839    0.0000 C.ar      1 <0>         0.0000
     21 C21         4.1378    2.9849    0.0000 C.3       1 <0>         0.0000
     22 C22         3.1833    3.7987    0.0000 C.3       1 <0>         0.0000
     23 C23         3.3465    5.1117    0.0000 C.3       1 <0>         0.0000
     24 C24         2.2842    5.9059    0.0000 C.3       1 <0>         0.0000
     25 C25         2.4035    7.1962    0.0000 C.3       1 <0>         0.0000
     26 C26         1.3310    7.9281    0.0000 C.2       1 <0>         0.0000
     27 O27         0.1685    7.3627    0.0000 O.co2     1 <0>         0.0000
     28 O28         1.4177    9.2161    0.0000 O.co2     1 <0>         0.0000
     29 H1         -5.6442   -5.6711    0.8982 H         1 <0>         0.0000
     30 H2         -5.6441   -5.6711   -0.8981 H         1 <0>         0.0000
     31 H4         -4.4574   -3.7899   -0.8982 H         1 <0>         0.0000
     32 H3         -4.4574   -3.7898    0.8981 H         1 <0>         0.0000
     33 H6         -3.3296   -5.7175    0.8982 H         1 <0>         0.0000
     34 H5         -3.3296   -5.7175   -0.8981 H         1 <0>         0.0000
     35 H7         -2.1883   -3.7871   -0.8982 H         1 <0>         0.0000
     36 H8         -2.1882   -3.7870    0.8981 H         1 <0>         0.0000
     37 H10        -1.0220   -5.6044    0.8982 H         1 <0>         0.0000
     38 H9         -1.0220   -5.6045   -0.8981 H         1 <0>         0.0000
     39 H11         1.4746   -4.9858    0.0000 H         1 <0>         0.0000
     40 H12         2.9609   -2.8179    0.0000 H         1 <0>         0.0000
     41 H13        -2.2406   -2.3290    0.0000 H         1 <0>         0.0000
     42 H14        -0.7587   -0.2401    0.0000 H         1 <0>         0.0000
     43 H15        -0.0768    0.7919    0.0000 H         1 <0>         0.0000
     44 H16         1.2636    2.9758    0.0000 H         1 <0>         0.0000
     45 H17         5.1647    0.6021    0.0000 H         1 <0>         0.0000
     46 H18         3.7543   -1.6162    0.0000 H         1 <0>         0.0000
     47 H19         4.7727    2.9685    0.8982 H         1 <0>         0.0000
     48 H20         4.7727    2.9685   -0.8981 H         1 <0>         0.0000
     49 H22         2.5679    3.6420   -0.8982 H         1 <0>         0.0000
     50 H21         2.5678    3.6420    0.8981 H         1 <0>         0.0000
     51 H23         3.9063    5.4116    0.8982 H         1 <0>         0.0000
     52 H24         3.9064    5.4116   -0.8981 H         1 <0>         0.0000
     53 H26         1.6801    5.7101   -0.8982 H         1 <0>         0.0000
     54 H25         1.6800    5.7102    0.8981 H         1 <0>         0.0000
     55 H27         2.9536    7.5136    0.8982 H         1 <0>         0.0000
     56 H28         2.9536    7.5136   -0.8981 H         1 <0>         0.0000
     57 H29        -8.6141   -4.2644   -0.0663 H         1 <0>         0.0000
@<TRIPOS>BOND
     1    1    2 1
     2    1   57 1
     3    2    3 2
     4    2    4 1
     5    4    5 1
     6    4   29 1
     7    4   30 1
     8    5    6 1
     9    5   31 1
    10    5   32 1
    11    6    7 1
    12    6   33 1
    13    6   34 1
    14    7    8 1
    15    7   35 1
    16    7   36 1
    17    8    9 1
    18    8   37 1
    19    8   38 1
    20    9   10 ar
    21    9   12 ar
    22   10   11 ar
    23   10   39 1
    24   11   14 ar
    25   11   40 1
    26   12   13 ar
    27   12   41 1
    28   13   14 ar
    29   13   42 1
    30   14   15 1
    31   15   20 ar
    32   15   16 ar
    33   16   17 ar
    34   16   43 1
    35   17   18 ar
    36   17   44 1
    37   18   19 ar
    38   18   21 1
    39   19   20 ar
    40   19   45 1
    41   20   46 1
    42   21   22 1
    43   21   47 1
    44   21   48 1
    45   22   23 1
    46   22   49 1
    47   22   50 1
    48   23   24 1
    49   23   51 1
    50   23   52 1
    51   24   25 1
    52   24   53 1
    53   24   54 1
    54   25   26 1
    55   25   55 1
    56   25   56 1
    57   26   27 2
    58   26   28 1
@<TRIPOS>MOLECULE
viologen
   57    58     0     0     0
SMALL
NO_CHARGES

@<TRIPOS>ATOM
      1 O1         -7.9191   -4.9233    0.0000 O.co2     1 <0>         0.0000
      2 C2         -6.7685   -4.3375    0.0000 C.2       1 <0>         0.0000
      3 O3         -6.7053   -3.0467    0.0000 O.co2     1 <0>         0.0000
      4 C4         -5.6740   -5.0367    0.0000 C.3       1 <0>         0.0000
      5 C5         -4.5335   -4.4204    0.0000 C.3       1 <0>         0.0000
      6 C6         -3.3868   -5.0850    0.0000 C.3       1 <0>         0.0000
      7 C7         -2.2442   -4.4197    0.0000 C.3       1 <0>         0.0000
      8 C8         -1.1202   -4.9770    0.0000 C.3       1 <0>         0.0000
      9 N9         -0.3948   -3.7270    0.0000 N.pl3     1 <0>         0.0000
     10 C10         0.9118   -3.8091    0.0000 C.ar      1 <0>         0.0000
     11 C11         1.6866   -2.7169    0.0000 C.ar      1 <0>         0.0000
     12 C12        -0.9480   -2.5054    0.0000 C.ar      1 <0>         0.0000
     13 C13        -0.2088   -1.3941    0.0000 C.ar      1 <0>         0.0000
     14 C14         1.0967   -1.5198    0.0000 C.ar      1 <0>         0.0000
     15 C15         1.8284   -0.4116    0.0000 C.ar      1 <0>         0.0000
     16 C16         1.2003    0.7392    0.0000 C.ar      1 <0>         0.0000
     17 C17         1.9325    1.8557    0.0000 C.ar      1 <0>         0.0000
     18 N18         3.2731    1.8268    0.0000 N.pl3     1 <0>         0.0000
     19 C19         3.8612    0.6576    0.0000 C.ar      1 <0>         0.0000
     20 C20         3.1610   -0.4839    0.0000 C.ar      1 <0>         0.0000
     21 C21         4.1378    2.9849    0.0000 C.3       1 <0>         0.0000
     22 C22         3.1833    3.7987    0.0000 C.3       1 <0>         0.0000
     23 C23         3.3465    5.1117    0.0000 C.3       1 <0>         0.0000
     24 C24         2.2842    5.9059    0.0000 C.3       1 <0>         0.0000
     25 C25         2.4035    7.1962    0.0000 C.3       1 <0>         0.0000
     26 C26         1.3310    7.9281    0.0000 C.2       1 <0>         0.0000
     27 O27         0.1685    7.3627    0.0000 O.2       1 <0>         0.0000
     28 O28         1.4177    9.2161    0.0000 O.3       1 <0>         0.0000
     29 H1         -5.6442   -5.6711    0.8982 H         1 <0>         0.0000
     30 H2         -5.6441   -5.6711   -0.8981 H         1 <0>         0.0000
     31 H4         -4.4574   -3.7899   -0.8982 H         1 <0>         0.0000
     32 H3         -4.4574   -3.7898    0.8981 H         1 <0>         0.0000
     33 H6         -3.3296   -5.7175    0.8982 H         1 <0>         0.0000
     34 H5         -3.3296   -5.7175   -0.8981 H         1 <0>         0.0000
     35 H7         -2.1883   -3.7871   -0.8982 H         1 <0>         0.0000
     36 H8         -2.1882   -3.7870    0.8981 H         1 <0>         0.0000
     37 H10        -1.0220   -5.6044    0.8982 H         1 <0>         0.0000
     38 H9         -1.0220   -5.6045   -0.8981 H         1 <0>         0.0000
     39 H11         1.4746   -4.9858    0.0000 H         1 <0>         0.0000
     40 H12         2.9609   -2.8179    0.0000 H         1 <0>         0.0000
     41 H13        -2.2406   -2.3290    0.0000 H         1 <0>         0.0000
     42 H14        -0.7587   -0.2401    0.0000 H         1 <0>         0.0000
     43 H15        -0.0768    0.7919    0.0000 H         1 <0>         0.0000
     44 H16         1.2636    2.9758    0.0000 H         1 <0>         0.0000
     45 H17         5.1647    0.6021    0.0000 H         1 <0>         0.0000
     46 H18         3.7543   -1.6162    0.0000 H         1 <0>         0.0000
     47 H19         4.7727    2.9685    0.8982 H         1 <0>         0.0000
     48 H20         4.7727    2.9685   -0.8981 H         1 <0>         0.0000
     49 H22         2.5679    3.6420   -0.8982 H         1 <0>         0.0000
     50 H21         2.5678    3.6420    0.8981 H         1 <0>         0.0000
     51 H23         3.9063    5.4116    0.8982 H         1 <0>         0.0000
     52 H24         3.9064    5.4116   -0.8981 H         1 <0>         0.0000
     53 H26         1.6801    5.7101   -0.8982 H         1 <0>         0.0000
     54 H25         1.6800    5.7102    0.8981 H         1 <0>         0.0000
     55 H27         2.9536    7.5136    0.8982 H         1 <0>         0.0000
     56 H28         2.9536    7.5136   -0.8981 H         1 <0>         0.0000
     57 H30         0.5042    9.8289    0.0000 H         1 <0>         0.0000
@<TRIPOS>BOND
     1    1    2 1
     2    2    3 2
     3    2    4 1
     4    4    5 1
     5    4   29 1
     6    4   30 1
     7    5    6 1
     8    5   31 1
     9    5   32 1
    10    6    7 1
    11    6   33 1
    12    6   34 1
    13    7    8 1
    14    7   35 1
    15    7   36 1
    16    8    9 1
    17    8   37 1
    18    8   38 1
    19    9   10 ar
    20    9   12 ar
    21   10   11 ar
    22   10   39 1
    23   11   14 ar
    24   11   40 1
    25   12   13 ar
    26   12   41 1
    27   13   14 ar
    28   13   42 1
    29   14   15 1
    30   15   20 ar
    31   15   16 ar
    32   16   17 ar
    33   16   43 1
    34   17   18 ar
    35   17   44 1
    36   18   19 ar
    37   18   21 1
    38   19   20 ar
    39   19   45 1
    40   20   46 1
    41   21   22 1
    42   21   47 1
    43   21   48 1
    44   22   23 1
    45   22   49 1
    46   22   50 1
    47   23   24 1
    48   23   51 1
    49   23   52 1
    50   24   25 1
    51   24   53 1
    52   24   54 1
    53   25   26 1
    54   25   55 1
    55   25   56 1
    56   26   27 2
    57   26   28 1
    58   28   57 1
@<TRIPOS>MOLECULE
viologen
   58    59     0     0     0
SMALL
NO_CHARGES

@<TRIPOS>ATOM
      1 O1         -7.9191   -4.9233    0.0000 O.3       1 <0>         0.0000
      2 C2         -6.7685   -4.3375    0.0000 C.2       1 <0>         0.0000
      3 O3         -6.7053   -3.0467    0.0000 O.2       1 <0>         0.0000
      4 C4         -5.6740   -5.0367    0.0000 C.3       1 <0>         0.0000
      5 C5         -4.5335   -4.4204    0.0000 C.3       1 <0>         0.0000
      6 C6         -3.3868   -5.0850    0.0000 C.3       1 <0>         0.0000
      7 C7         -2.2442   -4.4197    0.0000 C.3       1 <0>         0.0000
      8 C8         -1.1202   -4.9770    0.0000 C.3       1 <0>         0.0000
      9 N9         -0.3948   -3.7270    0.0000 N.pl3     1 <0>         0.0000
     10 C10         0.9118   -3.8091    0.0000 C.ar      1 <0>         0.0000
     11 C11         1.6866   -2.7169    0.0000 C.ar      1 <0>         0.0000
     12 C12        -0.9480   -2.5054    0.0000 C.ar      1 <0>         0.0000
     13 C13        -0.2088   -1.3941    0.0000 C.ar      1 <0>         0.0000
     14 C14         1.0967   -1.5198    0.0000 C.ar      1 <0>         0.0000
     15 C15         1.8284   -0.4116    0.0000 C.ar      1 <0>         0.0000
     16 C16         1.2003    0.7392    0.0000 C.ar      1 <0>         0.0000
     17 C17         1.9325    1.8557    0.0000 C.ar      1 <0>         0.0000
     18 N18         3.2731    1.8268    0.0000 N.pl3     1 <0>         0.0000
     19 C19         3.8612    0.6576    0.0000 C.ar      1 <0>         0.0000
     20 C20         3.1610   -0.4839    0.0000 C.ar      1 <0>         0.0000
     21 C21         4.1378    2.9849    0.0000 C.3       1 <0>         0.0000
     22 C22         3.1833    3.7987    0.0000 C.3       1 <0>         0.0000
     23 C23         3.3465    5.1117    0.0000 C.3       1 <0>         0.0000
     24 C24         2.2842    5.9059    0.0000 C.3       1 <0>         0.0000
     25 C25         2.4035    7.1962    0.0000 C.3       1 <0>         0.0000
     26 C26         1.3310    7.9281    0.0000 C.2       1 <0>         0.0000
     27 O27         0.1685    7.3627    0.0000 O.2       1 <0>         0.0000
     28 O28         1.4177    9.2161    0.0000 O.3       1 <0>         0.0000
     29 H29        -8.8414   -4.3239    0.0000 H         1 <0>         0.0000
     30 H2         -5.6442   -5.6711    0.8982 H         1 <0>         0.0000
     31 H1         -5.6441   -5.6711   -0.8981 H         1 <0>         0.0000
     32 H4         -4.4574   -3.7899   -0.8982 H         1 <0>         0.0000
     33 H3         -4.4574   -3.7898    0.8981 H         1 <0>         0.0000
     34 H6         -3.3296   -5.7175    0.8982 H         1 <0>         0.0000
     35 H5         -3.3296   -5.7175   -0.8981 H         1 <0>         0.0000
     36 H8         -2.1883   -3.7871   -0.8982 H         1 <0>         0.0000
     37 H7         -2.1882   -3.7870    0.8981 H         1 <0>         0.0000
     38 H10        -1.0220   -5.6044    0.8982 H         1 <0>         0.0000
     39 H9         -1.0220   -5.6045   -0.8981 H         1 <0>         0.0000
     40 H11         1.4746   -4.9858    0.0000 H         1 <0>         0.0000
     41 H12         2.9609   -2.8179    0.0000 H         1 <0>         0.0000
     42 H13        -2.2406   -2.3290    0.0000 H         1 <0>         0.0000
     43 H14        -0.7587   -0.2401    0.0000 H         1 <0>         0.0000
     44 H15        -0.0768    0.7919    0.0000 H         1 <0>         0.0000
     45 H16         1.2636    2.9758    0.0000 H         1 <0>         0.0000
     46 H17         5.1647    0.6021    0.0000 H         1 <0>         0.0000
     47 H18         3.7543   -1.6162    0.0000 H         1 <0>         0.0000
     48 H19         4.7727    2.9685    0.8982 H         1 <0>         0.0000
     49 H20         4.7727    2.9685   -0.8981 H         1 <0>         0.0000
     50 H22         2.5679    3.6420   -0.8982 H         1 <0>         0.0000
     51 H21         2.5678    3.6420    0.8981 H         1 <0>         0.0000
     52 H23         3.9063    5.4116    0.8982 H         1 <0>         0.0000
     53 H24         3.9064    5.4116   -0.8981 H         1 <0>         0.0000
     54 H26         1.6801    5.7101   -0.8982 H         1 <0>         0.0000
     55 H25         1.6800    5.7102    0.8981 H         1 <0>         0.0000
     56 H28         2.9536    7.5136    0.8982 H         1 <0>         0.0000
     57 H27         2.9536    7.5136   -0.8981 H         1 <0>         0.0000
     58 H30         0.5042    9.8289    0.0000 H         1 <0>         0.0000
@<TRIPOS>BOND
     1    1    2 1
     2    1   29 1
     3    2    3 2
     4    2    4 1
     5    4    5 1
     6    4   30 1
     7    4   31 1
     8    5    6 1
     9    5   32 1
    10    5   33 1
    11    6    7 1
    12    6   34 1
    13    6   35 1
    14    7    8 1
    15    7   36 1
    16    7   37 1
    17    8    9 1
    18    8   38 1
    19    8   39 1
    20    9   10 ar
    21    9   12 ar
    22   10   11 ar
    23   10   40 1
    24   11   14 ar
    25   11   41 1
    26   12   13 ar
    27   12   42 1
    28   13   14 ar
    29   13   43 1
    30   14   15 1
    31   15   20 ar
    32   15   16 ar
    33   16   17 ar
    34   16   44 1
    35   17   18 ar
    36   17   45 1
    37   18   19 ar
    38   18   21 1
    39   19   20 ar
    40   19   46 1
    41   20   47 1
    42   21   22 1
    43   21   48 1
    44   21   49 1
    45   22   23 1
    46   22   50 1
    47   22   51 1
    48   23   24 1
    49   23   52 1
    50   23   53 1
    51   24   25 1
    52   24   54 1
    53   24   55 1
    54   25   26 1
    55   25   56 1
    56   25   57 1
    57   26   27 2
    58   26   28 1
    59   28   58 1
