@<TRIPOS>MOLECULE
5-[1-(2,6-dichloro-3-fluoro-phenyl)ethoxy]-3-(1-piperidin-1-ium-4-ylpyrazol-4-yl)-1,2-dihydropyridin-2-ylium-6-amine
   54    57     1     0     0
SMALL
USER_CHARGES

@<TRIPOS>ATOM
      1 CL         18.3190   84.5690    3.5460 Cl        1 VGH        -0.0809
      2 C13        18.1880   83.5860    4.9680 C.ar      1 VGH         0.0321
      3 C3         17.7190   82.2880    4.7140 C.ar      1 VGH        -0.0901
      4 C2         17.5350   81.3810    5.7410 C.ar      1 VGH        -0.1267
      5 C12        17.8350   81.7940    7.0210 C.ar      1 VGH         0.1558
      6 F          17.6610   80.9190    8.0020 F         1 VGH        -0.1001
      7 C17        18.5060   84.0320    6.2790 C.ar      1 VGH        -0.0846
      8 C18        18.3160   83.0790    7.3080 C.ar      1 VGH        -0.0199
      9 CL2        18.6180   83.3970    8.9860 Cl        1 VGH        -0.0495
     10 C21        19.0330   85.4490    6.5390 C.3       1 VGH         0.1947
     11 C1         18.1170   86.2490    7.4610 C.3       1 VGH        -0.1331
     12 O27        20.3420   85.4420    7.1510 O.3       1 VGH        -0.3250
     13 C15        21.5270   85.1380    6.5080 C.ar      1 VGH         0.0565
     14 C4         21.7440   84.7620    5.1640 C.ar      1 VGH        -0.0287
     15 C19        22.6660   85.2200    7.3240 C.ar      1 VGH         0.3941
     16 N22        22.5410   85.5760    8.6720 N.pl3     1 VGH        -0.8087
     17 N23        23.9230   84.9750    6.8780 N.pl3     1 VGH        -0.5360
     18 C5         24.0840   84.6250    5.5840 C.cat     1 VGH         0.0511
     19 C14        23.0440   84.5010    4.6710 C.ar      1 VGH         0.0037
     20 C16        23.3350   84.0870    3.3020 C.ar      1 VGH        -0.2488
     21 C6         22.5200   83.6280    2.2370 C.ar      1 VGH         0.3541
     22 C7         24.6060   84.0070    2.7650 C.ar      1 VGH        -0.0902
     23 N26        24.4970   83.5610    1.4840 N.pl3     1 VGH         0.0723
     24 N24        23.2130   83.3190    1.1370 N.ar      1 VGH        -0.4926
     25 C20        25.5950   83.3510    0.5360 C.3       1 VGH         0.0753
     26 C8         26.0300   81.8930    0.2920 C.3       1 VGH        -0.1286
     27 C10        25.5280   81.2150   -0.9840 C.3       1 VGH         0.1078
     28 N25        25.5020   82.1510   -2.1590 N.4       1 VGH        -0.7654
     29 C11        24.8400   83.4750   -1.9280 C.3       1 VGH         0.1078
     30 C9         25.5000   84.1910   -0.7510 C.3       1 VGH        -0.1286
     31 H3         17.4980   81.9930    3.6990 H         1 VGH         0.1735
     32 H2         17.1690   80.3840    5.5470 H         1 VGH         0.1808
     33 H21        19.1364   85.9307    5.5555 H         1 VGH         0.0726
     34 H11C       18.5382   87.2534    7.6149 H         1 VGH         0.0630
     35 H12C       18.0320   85.7347    8.4296 H         1 VGH         0.0630
     36 H13C       17.1206   86.3354    7.0030 H         1 VGH         0.0630
     37 H4         20.8990   84.6720    4.4980 H         1 VGH         0.1960
     38 H221       23.4353   85.6395    9.3093 H         1 VGH         0.4871
     39 H222       21.5484   85.7922    9.0940 H         1 VGH         0.4871
     40 H5         25.0870   84.4280    5.2360 H         1 VGH         0.1934
     41 H6         21.4460   83.5370    2.3080 H         1 VGH         0.0679
     42 H7         25.5260   84.2550    3.2740 H         1 VGH         0.1882
     43 H20        26.3970   83.7827    1.1528 H         1 VGH         0.0794
     44 H81C       27.1275   81.8420    0.2380 H         1 VGH         0.1090
     45 H82C       25.6738   81.2608    1.1187 H         1 VGH         0.1090
     46 H91C       24.9074   85.0967   -0.5548 H         1 VGH         0.1090
     47 H92C       26.5106   84.4777   -1.0772 H         1 VGH         0.1090
     48 H101       26.1889   80.3726   -1.2359 H         1 VGH         0.1161
     49 H102       24.5052   80.8433   -0.8237 H         1 VGH         0.1161
     50 H25        26.5324   82.3748   -2.4723 H         1 VGH         0.4641
     51 H111       24.9379   84.0963   -2.8305 H         1 VGH         0.1161
     52 H112       23.7744   83.3182   -1.7047 H         1 VGH         0.1161
     53 H53        24.9599   81.6792   -2.9917 H         1 VGH         0.4641
     54 H54        24.7774   85.0636    7.5651 H         1 VGH         0.4887
@<TRIPOS>BOND
     1    1    2 1
     2    2    3 ar
     3    2    7 ar
     4    3    4 ar
     5    3   31 1
     6    4    5 ar
     7    4   32 1
     8    5    6 1
     9    5    8 ar
    10    7    8 ar
    11    7   10 1
    12    8    9 1
    13   10   11 1
    14   10   12 1
    15   10   33 1
    16   11   34 1
    17   11   35 1
    18   11   36 1
    19   12   13 1
    20   13   14 ar
    21   13   15 ar
    22   14   19 ar
    23   14   37 1
    24   15   16 1
    25   15   17 ar
    26   16   38 1
    27   16   39 1
    28   17   18 ar
    29   17   54 1
    30   18   19 ar
    31   18   40 1
    32   19   20 1
    33   20   21 ar
    34   20   22 ar
    35   21   24 ar
    36   21   41 1
    37   22   23 ar
    38   22   42 1
    39   23   24 ar
    40   23   25 1
    41   25   26 1
    42   25   30 1
    43   25   43 1
    44   26   27 1
    45   26   44 1
    46   26   45 1
    47   27   28 1
    48   27   48 1
    49   27   49 1
    50   28   29 1
    51   28   50 1
    52   28   53 1
    53   29   30 1
    54   29   51 1
    55   29   52 1
    56   30   46 1
    57   30   47 1
@<TRIPOS>SUBSTRUCTURE
     1 VGH         1 GROUP   0 A     ****
