@<TRIPOS>MOLECULE
5-[1-(2,6-dichloro-3-fluoro-phenyl)ethoxy]-3-(1-piperidin-1-ium-4-ylpyrazol-4-yl)-1,2-dihydropyridin-2-ylium-6-amine
   54    57     1     0     0
SMALL
No Charge or Current Charge


@<TRIPOS>ATOM
      1 Cl         18.3190   84.5690    3.5460 cl        1 VGH     -0.080900
      2 C13        18.1880   83.5860    4.9680 ca        1 VGH      0.032100
      3 C3         17.7190   82.2880    4.7140 ca        1 VGH     -0.090100
      4 C2         17.5350   81.3810    5.7410 ca        1 VGH     -0.126700
      5 C12        17.8350   81.7940    7.0210 ca        1 VGH      0.155800
      6 F          17.6610   80.9190    8.0020 f         1 VGH     -0.100100
      7 C17        18.5060   84.0320    6.2790 ca        1 VGH     -0.084600
      8 C18        18.3160   83.0790    7.3080 ca        1 VGH     -0.019900
      9 Cl2        18.6180   83.3970    8.9860 cl        1 VGH     -0.049500
     10 C21        19.0330   85.4490    6.5390 c3        1 VGH      0.194700
     11 C1         18.1170   86.2490    7.4610 c3        1 VGH     -0.133100
     12 O27        20.3420   85.4420    7.1510 os        1 VGH     -0.325000
     13 C15        21.5270   85.1380    6.5080 cc        1 VGH      0.056500
     14 C4         21.7440   84.7620    5.1640 cd        1 VGH     -0.028700
     15 C19        22.6660   85.2200    7.3240 cc        1 VGH      0.394100
     16 N22        22.5410   85.5760    8.6720 nh        1 VGH     -0.808700
     17 N23        23.9230   84.9750    6.8780 na        1 VGH     -0.536000
     18 C5         24.0840   84.6250    5.5840 cc        1 VGH      0.051100
     19 C14        23.0440   84.5010    4.6710 cd        1 VGH      0.003700
     20 C16        23.3350   84.0870    3.3020 cd        1 VGH     -0.248800
     21 C6         22.5200   83.6280    2.2370 cd        1 VGH      0.354100
     22 C7         24.6060   84.0070    2.7650 cc        1 VGH     -0.090200
     23 N26        24.4970   83.5610    1.4840 na        1 VGH      0.072300
     24 N24        23.2130   83.3190    1.1370 nc        1 VGH     -0.492600
     25 C20        25.5950   83.3510    0.5360 c3        1 VGH      0.075300
     26 C8         26.0300   81.8930    0.2920 c3        1 VGH     -0.128600
     27 C10        25.5280   81.2150   -0.9840 c3        1 VGH      0.107800
     28 N25        25.5020   82.1510   -2.1590 n4        1 VGH     -0.765400
     29 C11        24.8400   83.4750   -1.9280 c3        1 VGH      0.107800
     30 C9         25.5000   84.1910   -0.7510 c3        1 VGH     -0.128600
     31 H3         17.4980   81.9930    3.6990 ha        1 VGH      0.173500
     32 H2         17.1690   80.3840    5.5470 ha        1 VGH      0.180800
     33 H21        19.1360   85.9310    5.5560 h1        1 VGH      0.072600
     34 H11C       18.5380   87.2530    7.6150 hc        1 VGH      0.063000
     35 H12C       18.0320   85.7350    8.4300 hc        1 VGH      0.063000
     36 H13C       17.1210   86.3350    7.0030 hc        1 VGH      0.063000
     37 H4         20.8990   84.6720    4.4980 ha        1 VGH      0.196000
     38 H221       23.4350   85.6390    9.3090 hn        1 VGH      0.487100
     39 H222       21.5480   85.7920    9.0940 hn        1 VGH      0.487100
     40 H5         25.0870   84.4280    5.2360 h4        1 VGH      0.193400
     41 H6         21.4460   83.5370    2.3080 h4        1 VGH      0.067900
     42 H7         25.5260   84.2550    3.2740 h4        1 VGH      0.188200
     43 H20        26.3970   83.7830    1.1530 h1        1 VGH      0.079400
     44 H81C       27.1280   81.8420    0.2380 hc        1 VGH      0.109000
     45 H82C       25.6740   81.2610    1.1190 hc        1 VGH      0.109000
     46 H91C       24.9070   85.0970   -0.5550 hc        1 VGH      0.109000
     47 H92C       26.5110   84.4780   -1.0770 hc        1 VGH      0.109000
     48 H101       26.1890   80.3730   -1.2360 hx        1 VGH      0.116100
     49 H102       24.5050   80.8430   -0.8240 hx        1 VGH      0.116100
     50 H25        26.5320   82.3750   -2.4720 hn        1 VGH      0.464100
     51 H111       24.9380   84.0960   -2.8300 hx        1 VGH      0.116100
     52 H112       23.7740   83.3180   -1.7050 hx        1 VGH      0.116100
     53 H53        24.9600   81.6790   -2.9920 hn        1 VGH      0.464100
     54 H54        24.7770   85.0640    7.5650 hn        1 VGH      0.488700
@<TRIPOS>BOND
     1    1    2 1   
     2    2    3 ar  
     3    2    7 ar  
     4    3    4 ar  
     5    3   31 1   
     6    4    5 ar  
     7    4   32 1   
     8    5    6 1   
     9    5    8 ar  
    10    7    8 ar  
    11    7   10 1   
    12    8    9 1   
    13   10   11 1   
    14   10   12 1   
    15   10   33 1   
    16   11   34 1   
    17   11   35 1   
    18   11   36 1   
    19   12   13 1   
    20   13   14 2   
    21   13   15 1   
    22   14   19 1   
    23   14   37 1   
    24   15   16 2   
    25   15   17 1   
    26   16   38 1   
    27   16   39 1   
    28   17   18 1   
    29   17   54 1   
    30   18   19 2   
    31   18   40 1   
    32   19   20 1   
    33   20   21 1   
    34   20   22 2   
    35   21   24 2   
    36   21   41 1   
    37   22   23 1   
    38   22   42 1   
    39   23   24 1   
    40   23   25 1   
    41   25   26 1   
    42   25   30 1   
    43   25   43 1   
    44   26   27 1   
    45   26   44 1   
    46   26   45 1   
    47   27   28 1   
    48   27   48 1   
    49   27   49 1   
    50   28   29 1   
    51   28   50 1   
    52   28   53 1   
    53   29   30 1   
    54   29   51 1   
    55   29   52 1   
    56   30   46 1   
    57   30   47 1   
@<TRIPOS>SUBSTRUCTURE
     1 VGH         1 TEMP              0 ****  ****    0 ROOT
